<?xml version="1.0" encoding="UTF-8"?>
<configuration>
    <input>
        <additional-files value="../network/daan_xinyi_types.add.xml,../network/daan_xinyi_charging.add.xml,../network/daan_xinyi_edge_computers.add.xml"/>
    </input>

    <time>
        <begin value="0"/>
        <end value="3600"/>
    </time>

    <report>
        <verbose value="true"/>
        <no-step-log value="true"/>
    </report>
</configuration>
