This XML file does not appear to have any style information associated with it. The document tree is shown below.
<!--  generated on 2024-03-12 14:47:35 by Eclipse SUMO netedit Version 1.18.0
<configuration xmlns:xsi="http://www.w3.org/2001/XMLSchema-instance" xsi:noNamespaceSchemaLocation="http://sumo.dlr.de/xsd/neteditConfiguration.xsd">

    <input>
        <sumocfg-file value="C:\Users\User\Sumo\2023-10-24-15-18-29 - 0.5\osm.sumocfg"/>
        <additional-files value="C:\Users\User\Sumo\2023-10-24-15-18-29 - 0.5\osm.poly.xml"/>
        <route-files value="C:\Users\User\Sumo\2023-10-24-15-18-29 - 0.5\osm.passenger.rou.xml"/>
        <sumo-net-file value="C:\Users\User\Sumo\2023-10-24-15-18-29 - 0.5\osm.net.xml"/>
    </input>

    <output>
        <output-file value="C:\Users\User\Sumo\2023-10-24-15-18-29 - 0.5\osm.net.xml"/>
        <output.street-names value="true"/>
    </output>

    <processing>
        <geometry.min-radius.fix.railways value="false"/>
        <geometry.max-grade.fix value="false"/>
        <offset.disable-normalization value="true"/>
        <lefthand value="0"/>
    </processing>

    <junctions>
        <no-turnarounds value="true"/>
        <junctions.corner-detail value="5"/>
        <junctions.limit-turn-speed value="5.50"/>
        <rectangular-lane-cut value="0"/>
    </junctions>

    <pedestrian>
        <walkingareas value="0"/>
    </pedestrian>

</configuration>
 -->
<net xmlns:xsi="http://www.w3.org/2001/XMLSchema-instance" version="1.16" junctionCornerDetail="5" limitTurnSpeed="5.50" xsi:noNamespaceSchemaLocation="http://sumo.dlr.de/xsd/net_file.xsd">
<location netOffset="-351686.54,-2768066.29" convBoundary="0.00,0.00,4188.50,2273.52" origBoundary="121.529939,25.021079,121.571458,25.041558" projParameter="+proj=utm +zone=51 +ellps=WGS84 +datum=WGS84 +units=m +no_defs"/>
<type id="highway.cycleway" priority="1" numLanes="1" speed="5.56" allow="bicycle" oneway="0" width="2.00"/>
<type id="highway.footway" priority="1" numLanes="1" speed="2.78" allow="pedestrian" oneway="1" width="2.00"/>
<type id="highway.path" priority="1" numLanes="1" speed="5.56" allow="pedestrian bicycle" oneway="0" width="2.00"/>
<type id="highway.residential" priority="3" numLanes="1" speed="13.89" disallow="tram rail_urban rail rail_electric rail_fast ship" oneway="0"/>
<type id="highway.secondary" priority="11" numLanes="1" speed="27.78" disallow="tram rail_urban rail rail_electric rail_fast ship" oneway="0"/>
<type id="highway.secondary_link" priority="6" numLanes="1" speed="22.22" disallow="tram rail_urban rail rail_electric rail_fast ship" oneway="0"/>
<type id="highway.service" priority="1" numLanes="1" speed="5.56" allow="pedestrian delivery bicycle" oneway="0"/>
<type id="highway.tertiary" priority="10" numLanes="1" speed="22.22" disallow="tram rail_urban rail rail_electric rail_fast ship" oneway="0"/>
<type id="railway.subway" priority="18" numLanes="1" speed="27.78" allow="rail_urban" oneway="1"/>
<edge id=":251474928_0" function="internal">
<lane id=":251474928_0_0" index="0" disallow="tram rail_urban rail rail_electric rail_fast ship" speed="6.26" length="8.50" shape="1927.45,1354.39 1927.89,1355.83 1929.21,1356.83 1931.40,1357.38 1934.48,1357.48"/>
</edge>
<edge id=":251474928_1" function="internal">
<lane id=":251474928_1_0" index="0" disallow="tram rail_urban rail rail_electric rail_fast ship" speed="27.78" length="12.37" shape="1927.45,1354.39 1927.70,1357.54 1928.24,1360.07 1928.79,1362.82 1929.05,1366.63"/>
<lane id=":251474928_1_1" index="1" disallow="tram rail_urban rail rail_electric rail_fast ship" speed="27.78" length="12.37" shape="1927.45,1354.39 1927.20,1357.54 1926.64,1360.07 1926.09,1362.82 1925.85,1366.63"/>
</edge>
<edge id=":251474928_3" function="internal">
<lane id=":251474928_3_0" index="0" disallow="tram rail_urban rail rail_electric rail_fast ship" speed="27.78" length="14.41" shape="1920.08,1357.97 1934.48,1357.48"/>
<lane id=":251474928_3_1" index="1" disallow="tram rail_urban rail rail_electric rail_fast ship" speed="27.78" length="14.41" shape="1920.19,1361.17 1934.59,1360.68"/>
</edge>
<edge id=":251474928_5" function="internal">
<lane id=":251474928_5_0" index="0" disallow="tram rail_urban rail rail_electric rail_fast ship" speed="6.44" length="9.03" shape="1920.19,1361.17 1922.66,1361.44 1924.43,1362.44 1925.49,1364.17 1925.85,1366.63"/>
</edge>
<edge id=":302303166_0" function="internal">
<lane id=":302303166_0_0" index="0" disallow="tram rail_urban rail rail_electric rail_fast ship" speed="6.42" length="8.72" shape="1408.91,1899.44 1406.63,1899.87 1405.03,1900.97 1404.10,1902.74 1403.84,1905.19"/>
</edge>
<edge id=":302303166_1" function="internal">
<lane id=":302303166_1_0" index="0" disallow="tram rail_urban rail rail_electric rail_fast ship" speed="27.78" length="15.15" shape="1408.80,1896.24 1404.33,1896.66 1401.31,1897.32 1398.29,1897.98 1393.83,1898.39"/>
<lane id=":302303166_1_1" index="1" disallow="tram rail_urban rail rail_electric rail_fast ship" speed="27.78" length="15.15" shape="1408.68,1893.04 1404.21,1893.46 1401.19,1894.12 1398.17,1894.78 1393.71,1895.20"/>
</edge>
<edge id=":302303166_3" function="internal">
<lane id=":302303166_3_0" index="0" disallow="tram rail_urban rail rail_electric rail_fast ship" speed="13.89" length="16.14" shape="1400.19,1889.41 1400.78,1892.84 1401.98,1896.14 1403.19,1900.01 1403.84,1905.19"/>
<lane id=":302303166_3_1" index="1" disallow="tram rail_urban rail rail_electric rail_fast ship" speed="13.89" length="16.14" shape="1400.19,1889.41 1400.64,1905.28"/>
<lane id=":302303166_3_2" index="2" disallow="tram rail_urban rail rail_electric rail_fast ship" speed="13.89" length="16.14" shape="1400.19,1889.41 1399.79,1892.87 1398.78,1896.23 1397.79,1900.16 1397.44,1905.37"/>
</edge>
<edge id=":302303166_6" function="internal">
<lane id=":302303166_6_0" index="0" disallow="tram rail_urban rail rail_electric rail_fast ship" speed="6.79" length="9.86" shape="1400.19,1889.41 1399.84,1891.85 1398.65,1893.63 1396.60,1894.74 1393.71,1895.20"/>
</edge>
<edge id=":3083631825_0" function="internal">
<lane id=":3083631825_0_0" index="0" disallow="pedestrian tram rail_urban rail rail_electric rail_fast ship" speed="27.78" length="10.84" shape="1975.12,1870.03 1972.88,1872.00 1971.38,1873.39 1970.03,1874.92 1968.22,1877.28"/>
<lane id=":3083631825_0_1" index="1" disallow="pedestrian tram rail_urban rail rail_electric rail_fast ship" speed="27.78" length="10.84" shape="1973.03,1867.61 1970.63,1869.71 1969.03,1871.21 1967.58,1872.84 1965.65,1875.37"/>
<lane id=":3083631825_0_2" index="2" disallow="pedestrian tram rail_urban rail rail_electric rail_fast ship" speed="27.78" length="10.84" shape="1973.03,1867.61 1970.13,1869.49 1967.72,1870.23 1965.47,1871.13 1963.08,1873.47"/>
</edge>
<edge id=":3083631825_3" function="internal">
<lane id=":3083631825_3_0" index="0" disallow="pedestrian tram rail_urban rail rail_electric rail_fast ship" speed="16.68" length="12.73" shape="1967.87,1864.35 1968.18,1868.35 1969.23,1871.28 1969.69,1873.97 1968.22,1877.28"/>
<lane id=":3083631825_3_1" index="1" disallow="pedestrian tram rail_urban rail rail_electric rail_fast ship" speed="16.43" length="12.73" shape="1964.80,1862.92 1965.18,1866.78 1966.37,1869.59 1966.99,1872.18 1965.65,1875.37"/>
<lane id=":3083631825_3_2" index="2" disallow="pedestrian tram rail_urban rail rail_electric rail_fast ship" speed="16.18" length="12.73" shape="1961.74,1861.49 1962.18,1865.21 1963.52,1867.91 1964.29,1870.39 1963.08,1873.47"/>
<lane id=":3083631825_3_3" index="3" disallow="pedestrian tram rail_urban rail rail_electric rail_fast ship" speed="15.95" length="12.73" shape="1958.67,1860.05 1959.19,1863.64 1960.66,1866.22 1961.60,1868.60 1960.51,1871.56"/>
<lane id=":3083631825_3_4" index="4" disallow="pedestrian tram rail_urban rail rail_electric rail_fast ship" speed="12.39" length="12.73" shape="1955.43,1858.54 1956.47,1862.03 1958.11,1864.51 1959.03,1866.79 1957.94,1869.65"/>
</edge>
<edge id=":3083631831_0" function="internal">
<lane id=":3083631831_0_0" index="0" disallow="pedestrian tram rail_urban rail rail_electric rail_fast ship" speed="27.78" length="9.70" shape="1938.83,1815.13 1941.22,1816.43 1943.59,1815.84 1946.07,1815.14 1948.77,1816.13"/>
<lane id=":3083631831_0_1" index="1" disallow="pedestrian tram rail_urban rail rail_electric rail_fast ship" speed="27.78" length="9.70" shape="1938.83,1815.13 1940.78,1816.65 1942.59,1817.03 1944.48,1817.32 1946.70,1818.57"/>
</edge>
<edge id=":3083631831_2" function="internal">
<lane id=":3083631831_2_0" index="0" disallow="pedestrian tram rail_urban rail rail_electric rail_fast ship" speed="27.78" length="8.09" shape="1941.51,1810.94 1943.77,1812.33 1945.29,1813.33 1946.74,1814.43 1948.77,1816.13"/>
<lane id=":3083631831_2_1" index="1" disallow="pedestrian tram rail_urban rail rail_electric rail_fast ship" speed="27.78" length="8.09" shape="1939.79,1813.63 1941.94,1814.96 1943.39,1815.90 1944.76,1816.95 1946.70,1818.57"/>
<lane id=":3083631831_2_2" index="2" disallow="pedestrian tram rail_urban rail rail_electric rail_fast ship" speed="27.78" length="8.09" shape="1938.06,1816.33 1940.10,1817.58 1941.48,1818.48 1942.79,1819.47 1944.63,1821.01"/>
<lane id=":3083631831_2_3" index="3" disallow="pedestrian tram rail_urban rail rail_electric rail_fast ship" speed="27.78" length="8.09" shape="1936.33,1819.02 1938.27,1820.21 1939.58,1821.06 1940.82,1822.00 1942.56,1823.45"/>
<lane id=":3083631831_2_4" index="4" disallow="pedestrian tram rail_urban rail rail_electric rail_fast ship" speed="27.78" length="8.09" shape="1934.60,1821.72 1936.43,1822.84 1937.67,1823.64 1938.84,1824.52 1940.49,1825.89"/>
</edge>
<edge id=":3083634635_0" function="internal">
<lane id=":3083634635_0_0" index="0" disallow="pedestrian tram rail_urban rail rail_electric rail_fast ship" speed="25.00" length="13.34" shape="1850.35,1837.62 1853.58,1836.06 1855.79,1834.92 1857.76,1833.46 1860.25,1830.93"/>
<lane id=":3083634635_0_1" index="1" disallow="pedestrian tram rail_urban rail rail_electric rail_fast ship" speed="25.00" length="13.34" shape="1851.70,1840.52 1855.27,1838.80 1857.70,1837.52 1859.86,1835.89 1862.62,1833.09"/>
<lane id=":3083634635_0_2" index="2" disallow="pedestrian tram rail_urban rail rail_electric rail_fast ship" speed="25.00" length="13.34" shape="1851.70,1840.52 1855.79,1839.09 1858.93,1838.66 1861.77,1837.84 1864.98,1835.25"/>
</edge>
<edge id=":3083634635_3" function="internal">
<lane id=":3083634635_3_0" index="0" disallow="pedestrian tram rail_urban rail rail_electric rail_fast ship" speed="20.04" length="13.38" shape="1856.31,1844.81 1857.07,1840.46 1857.19,1837.26 1857.86,1834.37 1860.25,1830.93"/>
<lane id=":3083634635_3_1" index="1" disallow="pedestrian tram rail_urban rail rail_electric rail_fast ship" speed="19.56" length="13.38" shape="1859.20,1846.36 1859.87,1842.22 1859.87,1839.15 1860.39,1836.37 1862.62,1833.09"/>
<lane id=":3083634635_3_2" index="2" disallow="pedestrian tram rail_urban rail rail_electric rail_fast ship" speed="19.07" length="13.38" shape="1862.09,1847.92 1862.66,1843.98 1862.55,1841.04 1862.92,1838.37 1864.98,1835.25"/>
<lane id=":3083634635_3_3" index="3" disallow="pedestrian tram rail_urban rail rail_electric rail_fast ship" speed="18.58" length="13.38" shape="1864.97,1849.48 1865.46,1845.73 1865.22,1842.92 1865.45,1840.37 1867.34,1837.40"/>
<lane id=":3083634635_3_4" index="4" disallow="pedestrian tram rail_urban rail rail_electric rail_fast ship" speed="18.09" length="13.38" shape="1867.86,1851.04 1868.26,1847.49 1867.90,1844.81 1867.98,1842.38 1869.70,1839.56"/>
</edge>
<edge id=":339362247_0" function="internal">
<lane id=":339362247_0_0" index="0" disallow="tram rail_urban rail rail_electric rail_fast ship" speed="6.49" length="9.03" shape="1623.35,1666.49 1622.94,1664.05 1621.85,1662.33 1620.07,1661.33 1617.61,1661.05"/>
</edge>
<edge id=":339362247_1" function="internal">
<lane id=":339362247_1_0" index="0" disallow="tram rail_urban rail rail_electric rail_fast ship" speed="22.22" length="14.45" shape="1623.35,1666.49 1623.01,1652.04"/>
</edge>
<edge id=":339362247_2" function="internal">
<lane id=":339362247_2_0" index="0" disallow="tram rail_urban rail rail_electric rail_fast ship" speed="8.04" length="4.08" shape="1623.35,1666.49 1623.81,1662.62 1623.90,1662.46"/>
</edge>
<edge id=":339362247_3" function="internal">
<lane id=":339362247_3_0" index="0" disallow="tram rail_urban rail rail_electric rail_fast ship" speed="3.65" length="1.44" shape="1623.35,1666.49 1624.12,1665.27"/>
</edge>
<edge id=":339362247_16" function="internal">
<lane id=":339362247_16_0" index="0" disallow="tram rail_urban rail rail_electric rail_fast ship" speed="8.04" length="10.16" shape="1623.90,1662.46 1625.40,1659.81 1628.11,1658.08 1631.95,1657.40"/>
</edge>
<edge id=":339362247_17" function="internal">
<lane id=":339362247_17_0" index="0" disallow="tram rail_urban rail rail_electric rail_fast ship" speed="3.65" length="3.23" shape="1624.12,1665.27 1624.91,1664.85 1625.72,1665.23 1626.55,1666.41"/>
</edge>
<edge id=":339362247_4" function="internal">
<lane id=":339362247_4_0" index="0" disallow="tram rail_urban rail rail_electric rail_fast ship" speed="6.55" length="9.11" shape="1632.05,1660.60 1629.60,1661.03 1627.86,1662.14 1626.85,1663.94 1626.55,1666.41"/>
</edge>
<edge id=":339362247_5" function="internal">
<lane id=":339362247_5_0" index="0" disallow="tram rail_urban rail rail_electric rail_fast ship" speed="8.33" length="14.45" shape="1632.05,1660.60 1617.61,1661.05"/>
</edge>
<edge id=":339362247_6" function="internal">
<lane id=":339362247_6_0" index="0" disallow="tram rail_urban rail rail_electric rail_fast ship" speed="7.99" length="4.07" shape="1632.05,1660.60 1628.17,1660.17 1628.02,1660.09"/>
</edge>
<edge id=":339362247_7" function="internal">
<lane id=":339362247_7_0" index="0" disallow="tram rail_urban rail rail_electric rail_fast ship" speed="3.65" length="1.44" shape="1632.05,1660.60 1630.83,1659.84"/>
</edge>
<edge id=":339362247_18" function="internal">
<lane id=":339362247_18_0" index="0" disallow="tram rail_urban rail rail_electric rail_fast ship" speed="7.99" length="10.15" shape="1628.02,1660.09 1625.38,1658.60 1623.65,1655.89 1623.01,1652.04"/>
</edge>
<edge id=":339362247_19" function="internal">
<lane id=":339362247_19_0" index="0" disallow="tram rail_urban rail rail_electric rail_fast ship" speed="3.65" length="3.23" shape="1630.83,1659.84 1630.40,1659.05 1630.78,1658.24 1631.95,1657.40"/>
</edge>
<edge id=":339362247_8" function="internal">
<lane id=":339362247_8_0" index="0" disallow="tram rail_urban rail rail_electric rail_fast ship" speed="6.49" length="9.03" shape="1626.21,1651.97 1626.62,1654.41 1627.71,1656.13 1629.49,1657.13 1631.95,1657.40"/>
</edge>
<edge id=":339362247_9" function="internal">
<lane id=":339362247_9_0" index="0" disallow="tram rail_urban rail rail_electric rail_fast ship" speed="22.22" length="14.45" shape="1626.21,1651.97 1626.55,1666.41"/>
</edge>
<edge id=":339362247_10" function="internal">
<lane id=":339362247_10_0" index="0" disallow="tram rail_urban rail rail_electric rail_fast ship" speed="8.04" length="4.07" shape="1626.21,1651.97 1625.75,1655.84 1625.66,1655.99"/>
</edge>
<edge id=":339362247_11" function="internal">
<lane id=":339362247_11_0" index="0" disallow="tram rail_urban rail rail_electric rail_fast ship" speed="3.65" length="1.44" shape="1626.21,1651.97 1625.44,1653.19"/>
</edge>
<edge id=":339362247_20" function="internal">
<lane id=":339362247_20_0" index="0" disallow="tram rail_urban rail rail_electric rail_fast ship" speed="8.04" length="10.17" shape="1625.66,1655.99 1624.16,1658.65 1621.45,1660.38 1617.61,1661.05"/>
</edge>
<edge id=":339362247_21" function="internal">
<lane id=":339362247_21_0" index="0" disallow="tram rail_urban rail rail_electric rail_fast ship" speed="3.65" length="3.23" shape="1625.44,1653.19 1624.65,1653.61 1623.84,1653.22 1623.01,1652.04"/>
</edge>
<edge id=":339362247_12" function="internal">
<lane id=":339362247_12_0" index="0" disallow="tram rail_urban rail rail_electric rail_fast ship" speed="6.55" length="9.11" shape="1617.51,1657.86 1619.97,1657.43 1621.70,1656.31 1622.72,1654.52 1623.01,1652.04"/>
</edge>
<edge id=":339362247_13" function="internal">
<lane id=":339362247_13_0" index="0" disallow="tram rail_urban rail rail_electric rail_fast ship" speed="8.33" length="14.45" shape="1617.51,1657.86 1631.95,1657.40"/>
</edge>
<edge id=":339362247_14" function="internal">
<lane id=":339362247_14_0" index="0" disallow="tram rail_urban rail rail_electric rail_fast ship" speed="7.99" length="4.07" shape="1617.51,1657.86 1621.39,1658.29 1621.54,1658.37"/>
</edge>
<edge id=":339362247_15" function="internal">
<lane id=":339362247_15_0" index="0" disallow="tram rail_urban rail rail_electric rail_fast ship" speed="3.65" length="1.44" shape="1617.51,1657.86 1618.74,1658.62"/>
</edge>
<edge id=":339362247_22" function="internal">
<lane id=":339362247_22_0" index="0" disallow="tram rail_urban rail rail_electric rail_fast ship" speed="7.99" length="10.15" shape="1621.54,1658.37 1624.19,1659.86 1625.91,1662.57 1626.55,1666.41"/>
</edge>
<edge id=":339362247_23" function="internal">
<lane id=":339362247_23_0" index="0" disallow="tram rail_urban rail rail_electric rail_fast ship" speed="3.65" length="3.23" shape="1618.74,1658.62 1619.16,1659.40 1618.78,1660.22 1617.61,1661.05"/>
</edge>
<edge id=":339362272_0" function="internal">
<lane id=":339362272_0_0" index="0" disallow="tram rail_urban rail rail_electric rail_fast ship" speed="18.05" length="11.89" shape="1616.45,1377.09 1615.90,1374.03 1614.75,1371.71 1613.59,1369.20 1612.99,1365.56"/>
<lane id=":339362272_0_1" index="1" disallow="tram rail_urban rail rail_electric rail_fast ship" speed="18.05" length="11.89" shape="1616.45,1377.09 1616.19,1365.47"/>
</edge>
<edge id=":339362272_2" function="internal">
<lane id=":339362272_2_0" index="0" disallow="tram rail_urban rail rail_electric rail_fast ship" speed="7.40" length="2.53" shape="1616.45,1377.09 1616.96,1374.61"/>
</edge>
<edge id=":339362272_3" function="internal">
<lane id=":339362272_3_0" index="0" disallow="tram rail_urban rail rail_electric rail_fast ship" speed="3.65" length="1.44" shape="1616.45,1377.09 1617.23,1375.88"/>
</edge>
<edge id=":339362272_10" function="internal">
<lane id=":339362272_10_0" index="0" disallow="tram rail_urban rail rail_electric rail_fast ship" speed="7.40" length="9.30" shape="1616.96,1374.61 1618.58,1372.80 1621.32,1371.65 1625.18,1371.16"/>
</edge>
<edge id=":339362272_11" function="internal">
<lane id=":339362272_11_0" index="0" disallow="tram rail_urban rail rail_electric rail_fast ship" speed="3.65" length="3.23" shape="1617.23,1375.88 1618.02,1375.46 1618.83,1375.85 1619.65,1377.03"/>
</edge>
<edge id=":339362272_4" function="internal">
<lane id=":339362272_4_0" index="0" disallow="tram rail_urban rail rail_electric rail_fast ship" speed="5.78" length="6.92" shape="1619.39,1365.37 1619.77,1366.58 1620.85,1367.41 1622.62,1367.87 1625.07,1367.96"/>
</edge>
<edge id=":339362272_5" function="internal">
<lane id=":339362272_5_0" index="0" disallow="tram rail_urban rail rail_electric rail_fast ship" speed="18.05" length="11.67" shape="1619.39,1365.37 1619.65,1377.03"/>
</edge>
<edge id=":339362272_6" function="internal">
<lane id=":339362272_6_0" index="0" disallow="tram rail_urban rail rail_electric rail_fast ship" speed="3.65" length="1.44" shape="1619.39,1365.37 1618.62,1366.59"/>
</edge>
<edge id=":339362272_12" function="internal">
<lane id=":339362272_12_0" index="0" disallow="tram rail_urban rail rail_electric rail_fast ship" speed="3.65" length="3.23" shape="1618.62,1366.59 1617.84,1367.02 1617.02,1366.64 1616.19,1365.47"/>
</edge>
<edge id=":339362272_7" function="internal">
<lane id=":339362272_7_0" index="0" disallow="tram rail_urban rail rail_electric rail_fast ship" speed="27.78" length="13.55" shape="1611.54,1368.43 1625.07,1367.96"/>
<lane id=":339362272_7_1" index="1" disallow="tram rail_urban rail rail_electric rail_fast ship" speed="27.78" length="13.55" shape="1611.64,1371.63 1625.18,1371.16"/>
</edge>
<edge id=":339362272_9" function="internal">
<lane id=":339362272_9_0" index="0" disallow="tram rail_urban rail rail_electric rail_fast ship" speed="7.06" length="10.97" shape="1611.64,1371.63 1615.11,1371.86 1617.60,1372.84 1619.11,1374.57 1619.65,1377.03"/>
</edge>
<edge id=":3547976748_0" function="internal">
<lane id=":3547976748_0_0" index="0" disallow="tram rail_urban rail rail_electric rail_fast ship" speed="27.78" length="5.05" shape="1934.30,1648.03 1934.40,1653.08"/>
<lane id=":3547976748_0_1" index="1" disallow="tram rail_urban rail rail_electric rail_fast ship" speed="27.78" length="5.05" shape="1931.10,1648.09 1931.20,1653.14"/>
</edge>
<edge id=":3547976749_0" function="internal">
<lane id=":3547976749_0_0" index="0" disallow="tram rail_urban rail rail_electric rail_fast ship" speed="27.78" length="5.11" shape="1901.25,1653.70 1901.15,1648.60"/>
<lane id=":3547976749_0_1" index="1" disallow="tram rail_urban rail rail_electric rail_fast ship" speed="27.78" length="5.11" shape="1904.45,1653.64 1904.35,1648.54"/>
<lane id=":3547976749_0_2" index="2" disallow="tram rail_urban rail rail_electric rail_fast ship" speed="27.78" length="5.11" shape="1907.65,1653.59 1907.55,1648.48"/>
</edge>
<edge id=":3547976750_0" function="internal">
<lane id=":3547976750_0_0" index="0" disallow="tram rail_urban rail rail_electric rail_fast ship" speed="27.78" length="5.05" shape="1914.09,1648.45 1914.14,1653.47"/>
<lane id=":3547976750_0_1" index="1" disallow="tram rail_urban rail rail_electric rail_fast ship" speed="27.78" length="5.05" shape="1910.89,1648.47 1910.94,1653.52"/>
<lane id=":3547976750_0_2" index="2" disallow="tram rail_urban rail rail_electric rail_fast ship" speed="27.78" length="5.05" shape="1907.69,1648.49 1907.74,1653.57"/>
</edge>
<edge id=":4059035453_0" function="internal">
<lane id=":4059035453_0_0" index="0" disallow="tram rail_urban rail rail_electric rail_fast ship" speed="6.91" length="9.55" shape="1576.88,1461.72 1577.59,1464.35 1578.88,1466.19 1580.74,1467.25 1583.17,1467.52"/>
</edge>
<edge id=":4059035453_1" function="internal">
<lane id=":4059035453_1_0" index="0" disallow="tram rail_urban rail rail_electric rail_fast ship" speed="3.65" length="1.44" shape="1576.88,1461.72 1576.26,1463.02"/>
</edge>
<edge id=":4059035453_4" function="internal">
<lane id=":4059035453_4_0" index="0" disallow="tram rail_urban rail rail_electric rail_fast ship" speed="3.65" length="3.23" shape="1576.26,1463.02 1575.52,1463.53 1574.67,1463.24 1573.72,1462.17"/>
</edge>
<edge id=":4059035453_2" function="internal">
<lane id=":4059035453_2_0" index="0" disallow="tram rail_urban rail rail_electric rail_fast ship" speed="6.30" length="9.04" shape="1568.75,1468.10 1571.22,1467.65 1572.87,1466.51 1573.70,1464.68 1573.72,1462.17"/>
</edge>
<edge id=":4059035453_3" function="internal">
<lane id=":4059035453_3_0" index="0" disallow="tram rail_urban rail rail_electric rail_fast ship" speed="13.89" length="14.44" shape="1568.75,1468.10 1583.17,1467.52"/>
</edge>
<edge id=":420039224_0" function="internal">
<lane id=":420039224_0_0" index="0" disallow="tram rail_urban rail rail_electric rail_fast ship" speed="27.78" length="11.76" shape="1876.61,1368.23 1876.80,1364.64 1877.30,1362.08 1877.80,1359.69 1877.99,1356.58"/>
</edge>
<edge id=":420039224_1" function="internal">
<lane id=":420039224_1_0" index="0" disallow="tram rail_urban rail rail_electric rail_fast ship" speed="6.54" length="9.03" shape="1879.81,1368.17 1880.11,1365.70 1881.11,1363.90 1882.82,1362.79 1885.22,1362.35"/>
</edge>
<edge id=":420039224_2" function="internal">
<lane id=":420039224_2_0" index="0" disallow="tram rail_urban rail rail_electric rail_fast ship" speed="27.78" length="14.29" shape="1870.83,1359.65 1885.11,1359.16"/>
<lane id=":420039224_2_1" index="1" disallow="tram rail_urban rail rail_electric rail_fast ship" speed="27.78" length="14.29" shape="1870.94,1362.85 1885.22,1362.35"/>
</edge>
<edge id=":4210354584_0" function="internal">
<lane id=":4210354584_0_0" index="0" allow="pedestrian delivery bicycle" speed="3.65" length="4.67" shape="1669.63,1504.97 1670.46,1503.79 1671.27,1503.41 1672.06,1503.83 1672.83,1505.05"/>
</edge>
<edge id=":4210354586_0" function="internal">
<lane id=":4210354586_0_0" index="0" disallow="tram rail_urban rail rail_electric rail_fast ship" speed="13.89" length="9.41" shape="1674.70,1556.75 1665.29,1557.06"/>
</edge>
<edge id=":4210354586_1" function="internal">
<lane id=":4210354586_1_0" index="0" allow="pedestrian delivery bicycle" speed="6.02" length="7.92" shape="1674.70,1556.75 1671.90,1556.63 1669.92,1556.06 1668.75,1555.05 1668.38,1553.58"/>
</edge>
<edge id=":4210354586_2" function="internal">
<lane id=":4210354586_2_0" index="0" allow="pedestrian delivery bicycle" speed="6.24" length="7.86" shape="1671.58,1553.66 1671.16,1555.07 1669.97,1556.11 1668.01,1556.77 1665.29,1557.06"/>
</edge>
<edge id=":4210354586_3" function="internal">
<lane id=":4210354586_3_0" index="0" allow="pedestrian delivery bicycle" speed="3.65" length="4.67" shape="1671.58,1553.66 1670.75,1554.84 1669.94,1555.22 1669.15,1554.80 1668.38,1553.58"/>
</edge>
<edge id=":4210572469_0" function="internal">
<lane id=":4210572469_0_0" index="0" allow="pedestrian passenger bicycle evehicle" speed="6.09" length="7.99" shape="1934.66,1413.37 1932.54,1413.79 1931.04,1414.80 1930.16,1416.40 1929.91,1418.58"/>
</edge>
<edge id=":4210572469_1" function="internal">
<lane id=":4210572469_1_0" index="0" allow="pedestrian passenger bicycle evehicle" speed="2.89" length="2.92" width="2.00" shape="1934.66,1413.37 1933.88,1412.91 1933.61,1412.42 1933.83,1411.91 1934.55,1411.37"/>
</edge>
<edge id=":4210572469_2" function="internal">
<lane id=":4210572469_2_0" index="0" allow="pedestrian passenger bicycle evehicle" speed="6.05" length="7.88" width="2.00" shape="1929.66,1406.57 1930.00,1408.77 1930.93,1410.30 1932.45,1411.17 1934.55,1411.37"/>
</edge>
<edge id=":4210572469_3" function="internal">
<lane id=":4210572469_3_0" index="0" disallow="tram rail_urban rail rail_electric rail_fast ship" speed="27.78" length="12.02" shape="1929.66,1406.57 1929.91,1418.58"/>
<lane id=":4210572469_3_1" index="1" disallow="tram rail_urban rail rail_electric rail_fast ship" speed="27.78" length="12.02" shape="1926.47,1406.62 1926.71,1418.65"/>
</edge>
<edge id=":4210572470_0" function="internal">
<lane id=":4210572470_0_0" index="0" allow="pedestrian delivery bicycle" speed="5.01" length="5.03" shape="1877.30,1417.07 1877.09,1415.70 1876.49,1414.74 1875.51,1414.19 1874.13,1414.05"/>
</edge>
<edge id=":4210572470_1" function="internal">
<lane id=":4210572470_1_0" index="0" disallow="tram rail_urban rail rail_electric rail_fast ship" speed="27.78" length="6.21" shape="1877.30,1417.07 1877.23,1410.87"/>
<lane id=":4210572470_1_1" index="1" disallow="tram rail_urban rail rail_electric rail_fast ship" speed="27.78" length="6.21" shape="1880.50,1417.04 1880.43,1410.82"/>
</edge>
<edge id=":4435537538_0" function="internal">
<lane id=":4435537538_0_0" index="0" allow="bicycle" speed="5.56" length="5.67" width="2.00" shape="1363.39,1395.96 1363.28,1394.30 1362.99,1393.19 1362.46,1392.14 1361.61,1390.69"/>
</edge>
<edge id=":4435537538_1" function="internal">
<lane id=":4435537538_1_0" index="0" allow="bicycle" speed="2.89" length="1.20" width="2.00" shape="1363.39,1395.96 1363.87,1395.20 1364.14,1395.06"/>
</edge>
<edge id=":4435537538_4" function="internal">
<lane id=":4435537538_4_0" index="0" allow="bicycle" speed="2.89" length="1.72" width="2.00" shape="1364.14,1395.06 1364.37,1394.94 1364.87,1395.18 1365.39,1395.91"/>
</edge>
<edge id=":4435537538_2" function="internal">
<lane id=":4435537538_2_0" index="0" allow="bicycle" speed="5.56" length="6.67" width="2.00" shape="1363.34,1389.70 1364.34,1391.40 1364.95,1392.64 1365.27,1393.96 1365.39,1395.91"/>
</edge>
<edge id=":4435537538_3" function="internal">
<lane id=":4435537538_3_0" index="0" allow="bicycle" speed="2.89" length="1.25" width="2.00" shape="1363.34,1389.70 1363.28,1390.59 1363.09,1390.89"/>
</edge>
<edge id=":4435537538_5" function="internal">
<lane id=":4435537538_5_0" index="0" allow="bicycle" speed="2.89" length="1.67" width="2.00" shape="1363.09,1390.89 1362.97,1391.06 1362.41,1391.09 1361.61,1390.69"/>
</edge>
<edge id=":4435537539_0" function="internal">
<lane id=":4435537539_0_0" index="0" allow="bicycle" speed="4.41" length="3.86" width="2.00" shape="1374.50,1861.24 1374.33,1860.14 1373.89,1859.36 1373.18,1858.88 1372.20,1858.72"/>
</edge>
<edge id=":4435537539_1" function="internal">
<lane id=":4435537539_1_0" index="0" allow="bicycle" speed="5.56" length="9.48" width="2.00" shape="1374.50,1861.24 1374.36,1851.76"/>
</edge>
<edge id=":4435537539_2" function="internal">
<lane id=":4435537539_2_0" index="0" allow="bicycle" speed="2.89" length="2.92" width="2.00" shape="1374.50,1861.24 1374.98,1860.47 1375.47,1860.21 1375.98,1860.45 1376.50,1861.18"/>
</edge>
<edge id=":4435537539_3" function="internal">
<lane id=":4435537539_3_0" index="0" allow="bicycle" speed="4.26" length="3.24" width="2.00" shape="1377.89,1858.64 1377.26,1858.82 1376.81,1859.30 1376.56,1860.09 1376.50,1861.18"/>
</edge>
<edge id=":4435537539_4" function="internal">
<lane id=":4435537539_4_0" index="0" disallow="tram rail_urban rail rail_electric rail_fast ship" speed="27.78" length="5.58" shape="1377.87,1858.04 1372.20,1858.12"/>
<lane id=":4435537539_4_1" index="1" disallow="tram rail_urban rail rail_electric rail_fast ship" speed="27.78" length="5.58" shape="1377.73,1854.84 1372.23,1854.92"/>
</edge>
<edge id=":4435537539_6" function="internal">
<lane id=":4435537539_6_0" index="0" allow="bicycle" speed="4.89" length="4.77" width="2.00" shape="1377.71,1854.24 1376.24,1854.14 1375.20,1853.69 1374.57,1852.90 1374.36,1851.76"/>
</edge>
<edge id=":4435537539_7" function="internal">