<?xml version="1.0" encoding="UTF-8"?>
<additional>
    <!-- Edge Computers deployed at strategic PL locations -->
    <poi id="ES_PL001" x="2250.0" y="1350.0" type="edge_server" color="255,0,0" layer="1"/>
    <poi id="ES_PL002" x="2650.0" y="1425.0" type="edge_server" color="255,0,0" layer="1"/>
    <poi id="ES_PL003" x="2050.0" y="1180.0" type="edge_server" color="255,0,0" layer="1"/>
    <poi id="ES_PL004" x="2400.0" y="1260.0" type="edge_server" color="255,0,0" layer="1"/>
    <poi id="ES_PL005" x="2500.0" y="1500.0" type="edge_server" color="255,0,0" layer="1"/>
    <poi id="ES_PL006" x="2300.0" y="1100.0" type="edge_server" color="255,0,0" layer="1"/>
    <poi id="ES_PL007" x="2700.0" y="1300.0" type="edge_server" color="255,0,0" layer="1"/>
    <poi id="ES_PL008" x="2200.0" y="1450.0" type="edge_server" color="255,0,0" layer="1"/>
</additional>
