<routes xmlns:xsi="http://www.w3.org/2001/XMLSchema-instance" xsi:noNamespaceSchemaLocation="http://sumo.dlr.de/xsd/routes_file.xsd">
<vType id="veh_passenger" vClass="passenger"/>
<trip id="veh0" type="veh_passenger" depart="0.00" departLane="best" from="48768159#1" to="48742258#7"/>
<trip id="veh1" type="veh_passenger" depart="9.04" departLane="best" departSpeed="max" from="264425658#0" to="48740803#14"/>
<trip id="veh3" type="veh_passenger" depart="27.13" departLane="best" from="30688296#5" to="405980657#0"/>
<trip id="veh7" type="veh_passenger" depart="63.31" departLane="best" departSpeed="max" from="303850626#0" to="30620527#2"/>
<trip id="veh10" type="veh_passenger" depart="90.45" departLane="best" from="48740803#3" to="E89"/>
<trip id="veh12" type="veh_passenger" depart="108.53" departLane="best" departSpeed="max" from="518980187#0" to="1061958809#1"/>
<trip id="veh14" type="veh_passenger" depart="126.62" departLane="best" from="1062105324" to="48740803#3"/>
<trip id="veh16" type="veh_passenger" depart="144.71" departLane="best" departSpeed="max" from="264425658#0" to="E71"/>
<trip id="veh22" type="veh_passenger" depart="198.98" departLane="best" departSpeed="max" from="196961202#0" to="1061707656"/>
<trip id="veh25" type="veh_passenger" depart="226.11" departLane="best" departSpeed="max" from="264425658#0" to="48742258#8"/>
<trip id="veh26" type="veh_passenger" depart="235.16" departLane="best" from="48742258#5" to="48742279#2"/>
<trip id="veh27" type="veh_passenger" depart="244.20" departLane="best" departSpeed="max" from="48742275#4" to="E56"/>
<trip id="veh29" type="veh_passenger" depart="262.29" departLane="best" from="1062105333#0" to="1061958809#1"/>
<trip id="veh32" type="veh_passenger" depart="289.42" departLane="best" departSpeed="max" from="E96" to="E38"/>
<trip id="veh36" type="veh_passenger" depart="325.60" departLane="best" from="35928058#2" to="E8"/>
<trip id="veh38" type="veh_passenger" depart="343.69" departLane="best" departSpeed="max" from="E3" to="E44"/>
<trip id="veh40" type="veh_passenger" depart="361.78" departLane="best" from="48742278#7" to="30620527#0"/>
<trip id="veh42" type="veh_passenger" depart="379.87" departLane="best" from="1062105334#0" to="906806102#2"/>
<trip id="veh44" type="veh_passenger" depart="397.96" departLane="best" from="300090399#1" to="1062105333#2"/>
<trip id="veh46" type="veh_passenger" depart="416.05" departLane="best" from="1061958808#1" to="E28"/>
<trip id="veh48" type="veh_passenger" depart="434.14" departLane="best" departSpeed="max" from="264425658#0" to="E44"/>
<trip id="veh50" type="veh_passenger" depart="452.23" departLane="best" from="1064294851#0" to="668037883#1"/>
<trip id="veh54" type="veh_passenger" depart="488.40" departLane="best" departSpeed="max" from="196961202#0" to="48740803#1"/>
<trip id="veh56" type="veh_passenger" depart="506.49" departLane="best" departSpeed="max" from="196961202#0" to="E58"/>
<trip id="veh58" type="veh_passenger" depart="524.58" departLane="best" from="1064294851#3" to="300090399#1"/>
<trip id="veh63" type="veh_passenger" depart="569.81" departLane="best" from="30688296#10" to="906806103#2"/>
<trip id="veh64" type="veh_passenger" depart="578.85" departLane="best" from="35928055#7" to="E38"/>
<trip id="veh65" type="veh_passenger" depart="587.89" departLane="best" from="48742254#0" to="1061958809#1"/>
<trip id="veh67" type="veh_passenger" depart="605.98" departLane="best" from="30688296#1" to="1062105334#0"/>
<trip id="veh74" type="veh_passenger" depart="669.30" departLane="best" from="48740801#5" to="E34"/>
<trip id="veh75" type="veh_passenger" depart="678.34" departLane="best" from="1062105325" to="35928055#8"/>
<trip id="veh78" type="veh_passenger" depart="705.47" departLane="best" from="48740803#17" to="E71"/>
<trip id="veh81" type="veh_passenger" depart="732.61" departLane="best" departSpeed="max" from="48801128#0" to="668037881#0"/>
<trip id="veh84" type="veh_passenger" depart="759.74" departLane="best" departSpeed="max" from="264425658#0" to="E70"/>
<trip id="veh85" type="veh_passenger" depart="768.78" departLane="best" from="304544028#7" to="30620527#3"/>
<trip id="veh88" type="veh_passenger" depart="795.92" departLane="best" from="48768159#6" to="E72"/>
<trip id="veh89" type="veh_passenger" depart="804.96" departLane="best" from="1062105337#2" to="182973463#2"/>
<trip id="veh92" type="veh_passenger" depart="832.10" departLane="best" from="668037873#2" to="405980657#0"/>
<trip id="veh93" type="veh_passenger" depart="841.14" departLane="best" from="48740801#2" to="E58"/>
<trip id="veh95" type="veh_passenger" depart="859.23" departLane="best" from="48768159#0" to="48742279#1"/>
<trip id="veh97" type="veh_passenger" depart="877.32" departLane="best" from="35928055#2" to="-30620481#0"/>
<trip id="veh101" type="veh_passenger" depart="913.50" departLane="best" from="1062105338#2" to="264410578#1"/>
<trip id="veh102" type="veh_passenger" depart="922.54" departLane="best" from="300090399#10" to="E56"/>
<trip id="veh105" type="veh_passenger" depart="949.68" departLane="best" from="245932667#1" to="1064294851#0"/>
<trip id="veh111" type="veh_passenger" depart="1003.94" departLane="best" from="35928058#5" to="668037881#3"/>
<trip id="veh113" type="veh_passenger" depart="1022.03" departLane="best" from="-30688296#3" to="35928058#6"/>
<trip id="veh114" type="veh_passenger" depart="1031.08" departLane="best" departSpeed="max" from="E96" to="48768159#5"/>
<trip id="veh117" type="veh_passenger" depart="1058.21" departLane="best" departSpeed="max" from="E96" to="35928055#2"/>
<trip id="veh124" type="veh_passenger" depart="1121.52" departLane="best" from="48768159#6" to="906806103#1"/>
<trip id="veh125" type="veh_passenger" depart="1130.57" departLane="best" from="300090399#11" to="E32"/>
<trip id="veh126" type="veh_passenger" depart="1139.61" departLane="best" from="668037873#3" to="668037883#1"/>
<trip id="veh127" type="veh_passenger" depart="1148.65" departLane="best" from="-30688296#10" to="668037873#2"/>
<trip id="veh131" type="veh_passenger" depart="1184.83" departLane="best" from="1062105334#0" to="48794870#2"/>
<trip id="veh134" type="veh_passenger" depart="1211.97" departLane="best" from="404179544" to="E57"/>
<trip id="veh138" type="veh_passenger" depart="1248.14" departLane="best" departSpeed="max" from="48801128#0" to="48740803#15"/>
<trip id="veh139" type="veh_passenger" depart="1257.19" departLane="best" from="1064294851#0" to="-48742258#6"/>
<trip id="veh142" type="veh_passenger" depart="1284.32" departLane="best" from="48740801#3" to="48742258#5"/>
<trip id="veh143" type="veh_passenger" depart="1293.37" departLane="best" from="48768159#4" to="-304544028#2"/>
<trip id="veh146" type="veh_passenger" depart="1320.50" departLane="best" from="1064294847#0" to="E81"/>
<trip id="veh147" type="veh_passenger" depart="1329.55" departLane="best" from="48740803#16" to="1061958809#1"/>
<trip id="veh152" type="veh_passenger" depart="1374.77" departLane="best" from="48742279#5" to="48768159#2"/>
<trip id="veh153" type="veh_passenger" depart="1383.81" departLane="best" departSpeed="max" from="264425658#0" to="906806102#0"/>
<trip id="veh154" type="veh_passenger" depart="1392.86" departLane="best" from="48740803#4" to="300090399#2"/>
<trip id="veh156" type="veh_passenger" depart="1410.95" departLane="best" departSpeed="max" from="518980187#0" to="1062105335#2"/>
<trip id="veh158" type="veh_passenger" depart="1429.04" departLane="best" from="30688296#8" to="405980657#0"/>
<trip id="veh165" type="veh_passenger" depart="1492.35" departLane="best" from="1167314977" to="48740801#5"/>
<trip id="veh166" type="veh_passenger" depart="1501.39" departLane="best" from="35928055#5" to="1061707656"/>
<trip id="veh168" type="veh_passenger" depart="1519.48" departLane="best" from="35928058#8" to="264410578#1"/>
<trip id="veh170" type="veh_passenger" depart="1537.57" departLane="best" from="1064294851#3" to="906806102#2"/>
<trip id="veh173" type="veh_passenger" depart="1564.70" departLane="best" from="48768159#3" to="E29"/>
<trip id="veh175" type="veh_passenger" depart="1582.79" departLane="best" from="-48742258#7" to="48740801#5"/>
<trip id="veh178" type="veh_passenger" depart="1609.93" departLane="best" from="668037883#2" to="182973463#2"/>
<trip id="veh180" type="veh_passenger" depart="1628.01" departLane="best" from="1062105335#2" to="48742258#8"/>
<trip id="veh182" type="veh_passenger" depart="1646.10" departLane="best" from="1062105335#5" to="E93"/>
<trip id="veh184" type="veh_passenger" depart="1664.19" departLane="best" from="48740803#1" to="E0"/>
<trip id="veh186" type="veh_passenger" depart="1682.28" departLane="best" from="1062105335#1" to="E82"/>
<trip id="veh191" type="veh_passenger" depart="1727.50" departLane="best" departSpeed="max" from="264425658#0" to="E34"/>
<trip id="veh197" type="veh_passenger" depart="1781.77" departLane="best" departSpeed="max" from="518980187#0" to="48768159#3"/>
<trip id="veh198" type="veh_passenger" depart="1790.82" departLane="best" from="-304544028#5" to="E78"/>
<trip id="veh200" type="veh_passenger" depart="1808.91" departLane="best" from="48740801#2" to="E28"/>
<trip id="veh201" type="veh_passenger" depart="1817.95" departLane="best" from="49695762#3" to="668037881#3"/>
<trip id="veh203" type="veh_passenger" depart="1836.04" departLane="best" departSpeed="max" from="518980187#0" to="48768159#0"/>
<trip id="veh204" type="veh_passenger" depart="1845.08" departLane="best" from="1064294849#1" to="239206121#1"/>
<trip id="veh208" type="veh_passenger" depart="1881.26" departLane="best" from="264861661#18" to="1064294850"/>
<trip id="veh209" type="veh_passenger" depart="1890.31" departLane="best" from="1064294850" to="48740803#17"/>
<trip id="veh211" type="veh_passenger" depart="1908.40" departLane="best" departSpeed="max" from="518980187#0" to="264410578#1"/>
<trip id="veh216" type="veh_passenger" depart="1953.62" departLane="best" from="48742258#6" to="668037881#3"/>
<trip id="veh217" type="veh_passenger" depart="1962.66" departLane="best" from="E98" to="239206121#1"/>
<trip id="veh219" type="veh_passenger" depart="1980.75" departLane="best" from="35928055#7" to="E38"/>
<trip id="veh221" type="veh_passenger" depart="1998.84" departLane="best" from="668037883#0" to="E78"/>
<trip id="veh222" type="veh_passenger" depart="2007.89" departLane="best" from="48768159#5" to="30620527#3"/>
<trip id="veh223" type="veh_passenger" depart="2016.93" departLane="best" departSpeed="max" from="48742275#4" to="518980187#3"/>
<trip id="veh224" type="veh_passenger" depart="2025.97" departLane="best" departSpeed="max" from="196961202#0" to="E26"/>
<trip id="veh228" type="veh_passenger" depart="2062.15" departLane="best" from="48768159#6" to="E70"/>
<trip id="veh229" type="veh_passenger" depart="2071.20" departLane="best" from="48768159#2" to="E59"/>
<trip id="veh231" type="veh_passenger" depart="2089.29" departLane="best" from="1062105340#3" to="668037881#3"/>
<trip id="veh233" type="veh_passenger" depart="2107.37" departLane="best" departSpeed="max" from="297234980#0" to="245932673#0"/>
<trip id="veh236" type="veh_passenger" depart="2134.51" departLane="best" from="48740801#3" to="1062105338#1"/>
<trip id="veh240" type="veh_passenger" depart="2170.69" departLane="best" departSpeed="max" from="48801128#0" to="48768159#0"/>
<trip id="veh242" type="veh_passenger" depart="2188.78" departLane="best" departSpeed="max" from="E3" to="35928055#4"/>
<trip id="veh244" type="veh_passenger" depart="2206.86" departLane="best" from="48740801#3" to="1062105341"/>
<trip id="veh245" type="veh_passenger" depart="2215.91" departLane="best" departSpeed="max" from="304463980#0" to="906806103#2"/>
<trip id="veh247" type="veh_passenger" depart="2234.00" departLane="best" from="35928058#2" to="668037883#2"/>
<trip id="veh250" type="veh_passenger" depart="2261.13" departLane="best" departSpeed="max" from="721488133#0" to="405980657#0"/>
<trip id="veh252" type="veh_passenger" depart="2279.22" departLane="best" from="1062105335#5" to="E89"/>
<trip id="veh254" type="veh_passenger" depart="2297.31" departLane="best" from="-48742255" to="1064294847#0"/>
<trip id="veh256" type="veh_passenger" depart="2315.40" departLane="best" from="35928058#6" to="239206121#1"/>
<trip id="veh260" type="veh_passenger" depart="2351.58" departLane="best" departSpeed="max" from="E96" to="48742258#4"/>
<trip id="veh263" type="veh_passenger" depart="2378.71" departLane="best" from="30688296#7" to="E71"/>
<trip id="veh265" type="veh_passenger" depart="2396.80" departLane="best" from="264861661#18" to="668037873#5"/>
<trip id="veh267" type="veh_passenger" depart="2414.89" departLane="best" from="48740801#2" to="304544028#3"/>
<trip id="veh268" type="veh_passenger" depart="2423.93" departLane="best" from="48740803#4" to="E10"/>
<trip id="veh270" type="veh_passenger" depart="2442.02" departLane="best" from="35928058#3" to="906806102#2"/>
<trip id="veh272" type="veh_passenger" depart="2460.11" departLane="best" from="48742263#2" to="48740803#3"/>
<trip id="veh274" type="veh_passenger" depart="2478.20" departLane="best" from="668037883#2" to="E26"/>
<trip id="veh278" type="veh_passenger" depart="2514.38" departLane="best" departSpeed="max" from="48742275#4" to="E43"/>
<trip id="veh281" type="veh_passenger" depart="2541.51" departLane="best" from="48768159#4" to="30620527#1"/>
<trip id="veh282" type="veh_passenger" depart="2550.56" departLane="best" from="35928058#9" to="E87"/>
<trip id="veh284" type="veh_passenger" depart="2568.65" departLane="best" from="48768159#3" to="E34"/>
<trip id="veh285" type="veh_passenger" depart="2577.69" departLane="best" from="668037873#2" to="E28"/>
<trip id="veh289" type="veh_passenger" depart="2613.87" departLane="best" departSpeed="max" from="518980187#0" to="E58"/>
<trip id="veh293" type="veh_passenger" depart="2650.05" departLane="best" from="1062105341" to="1062105338#0"/>
<trip id="veh302" type="veh_passenger" depart="2731.45" departLane="best" from="1064294851#0" to="E119"/>
<trip id="veh304" type="veh_passenger" depart="2749.54" departLane="best" from="E98" to="668037873#2"/>
<trip id="veh308" type="veh_passenger" depart="2785.71" departLane="best" from="48740801#4" to="E58"/>
<trip id="veh314" type="veh_passenger" depart="2839.98" departLane="best" from="48742279#5" to="E58"/>
<trip id="veh315" type="veh_passenger" depart="2849.03" departLane="best" from="48768159#2" to="668037881#3"/>
<trip id="veh319" type="veh_passenger" depart="2885.20" departLane="best" from="1064294847#0" to="300090399#1"/>
<trip id="veh320" type="veh_passenger" depart="2894.25" departLane="best" from="48740803#4" to="E87"/>
<trip id="veh325" type="veh_passenger" depart="2939.47" departLane="best" departSpeed="max" from="303850626#0" to="182973463#2"/>
<trip id="veh326" type="veh_passenger" depart="2948.52" departLane="best" departSpeed="max" from="E96" to="E38"/>
<trip id="veh327" type="veh_passenger" depart="2957.56" departLane="best" from="668037873#4" to="E92"/>
<trip id="veh335" type="veh_passenger" depart="3029.92" departLane="best" from="1062105337#4" to="E78"/>
<trip id="veh337" type="veh_passenger" depart="3048.01" departLane="best" from="-1062105334#2" to="E51"/>
<trip id="veh341" type="veh_passenger" depart="3084.18" departLane="best" from="30688296#7" to="1064294849#1"/>
<trip id="veh343" type="veh_passenger" depart="3102.27" departLane="best" from="E74" to="1061707677#0"/>
<trip id="veh345" type="veh_passenger" depart="3120.36" departLane="best" from="1062105335#0" to="E25"/>
<trip id="veh346" type="veh_passenger" depart="3129.41" departLane="best" from="48740803#7" to="E90"/>
<trip id="veh347" type="veh_passenger" depart="3138.45" departLane="best" from="1064294849#1" to="245932669#0"/>
<trip id="veh349" type="veh_passenger" depart="3156.54" departLane="best" departSpeed="max" from="48742275#4" to="-48742258#1"/>
<trip id="veh351" type="veh_passenger" depart="3174.63" departLane="best" from="E220" to="906806103#0"/>
<trip id="veh352" type="veh_passenger" depart="3183.67" departLane="best" from="-1062105334#1" to="E38"/>
<trip id="veh353" type="veh_passenger" depart="3192.72" departLane="best" from="1062105338#1" to="29558201"/>
<trip id="veh354" type="veh_passenger" depart="3201.76" departLane="best" from="245932667#2" to="311134633#1"/>
<trip id="veh355" type="veh_passenger" depart="3210.81" departLane="best" from="48768159#6" to="48742258#8"/>
<trip id="veh357" type="veh_passenger" depart="3228.90" departLane="best" departSpeed="max" from="196961202#0" to="906806102#2"/>
<trip id="veh358" type="veh_passenger" depart="3237.94" departLane="best" from="1064294847#0" to="1062105325"/>
<trip id="veh359" type="veh_passenger" depart="3246.99" departLane="best" from="E60" to="1061958808#3"/>
<trip id="veh360" type="veh_passenger" depart="3256.03" departLane="best" from="E100" to="E42"/>
<trip id="veh367" type="veh_passenger" depart="3319.34" departLane="best" from="48742278#5" to="1064294849#1"/>
<trip id="veh368" type="veh_passenger" depart="3328.39" departLane="best" departSpeed="max" from="518980187#0" to="E34"/>
<trip id="veh369" type="veh_passenger" depart="3337.43" departLane="best" from="35928058#1" to="48740803#17"/>
<trip id="veh372" type="veh_passenger" depart="3364.56" departLane="best" departSpeed="max" from="30620481#0" to="30620527#0"/>
<trip id="veh378" type="veh_passenger" depart="3418.83" departLane="best" from="668037883#3" to="245932669#0"/>
<trip id="veh379" type="veh_passenger" depart="3427.88" departLane="best" departSpeed="max" from="304463980#0" to="E24"/>
<trip id="veh380" type="veh_passenger" depart="3436.92" departLane="best" from="668037883#3" to="E42"/>
<trip id="veh383" type="veh_passenger" depart="3464.05" departLane="best" departSpeed="max" from="48742275#4" to="48740801#2"/>
<trip id="veh387" type="veh_passenger" depart="3500.23" departLane="best" from="48768159#1" to="-769717223"/>
<trip id="veh389" type="veh_passenger" depart="3518.32" departLane="best" departSpeed="max" from="264425658#0" to="35928055#4"/>
<trip id="veh390" type="veh_passenger" depart="3527.37" departLane="best" departSpeed="max" from="518980187#0" to="668037881#3"/>
<trip id="veh391" type="veh_passenger" depart="3536.41" departLane="best" departSpeed="max" from="303850626#0" to="-304544028#3"/>
<trip id="veh392" type="veh_passenger" depart="3545.45" departLane="best" from="30688296#0" to="300090399#6"/>
<trip id="veh393" type="veh_passenger" depart="3554.50" departLane="best" from="48742279#7" to="1061707656"/>
<trip id="veh394" type="veh_passenger" depart="3563.54" departLane="best" from="668037883#2" to="48740801#3"/>
<trip id="veh396" type="veh_passenger" depart="3581.63" departLane="best" from="1062105326" to="1062105325"/>
<trip id="veh398" type="veh_passenger" depart="3599.72" departLane="best" departSpeed="max" from="48801128#0" to="48768159#1"/>
</routes>
